Circuit: * C:\Users\waltd\Downloads\prac2\LTSpice models for TL081 op-amp and CD4066 analog switch. These must be in the same directory as you\Draft1.asc

R4: both pins shorted together -- ignoring.
WARNING: Node N012 is floating.

WARNING: Less than two connections to node J.  This node is used by R7.
WARNING: Less than two connections to node N009.  This node is used by D1.
WARNING: Less than two connections to node N012.  This node is used by D1.
Early termination of direct N-R iteration.
Direct Newton iteration failed to find .op point.  (Use ".option noopiter" to skip.)
Starting Gmin stepping
Gmin = 10
vernier = 0.5
vernier = 0.25
vernier = 0.125
Gmin = 5.5165
vernier = 0.0625
vernier = 0.03125
vernier = 0.015625
vernier = 0.0078125
Gmin = 5.49501
vernier = 0.00390625
vernier = 0.00195313
vernier = 0.000976563
vernier = 0.000488281
Gmin = 5.50104
Gmin = 0
Gmin stepping failed

Starting source stepping with srcstepmethod=0
Source Step = 3.0303%
Source Step = 33.3333%
Source Step = 63.6364%
Source Step = 93.9394%
Source stepping succeeded in finding the operating point.

Ignoring empty pin current: Ix(1:1)
Ignoring empty pin current: Ix(1:2)
Ignoring empty pin current: Ix(1:3)
Ignoring empty pin current: Ix(1:4)
Ignoring empty pin current: Ix(2:1)
Ignoring empty pin current: Ix(2:2)
Ignoring empty pin current: Ix(2:3)
Ignoring empty pin current: Ix(2:4)
Ignoring empty pin current: Ix(u2:2)
Ignoring empty pin current: Ix(u4:2)
Ignoring empty pin current: Ix(1:1)
Ignoring empty pin current: Ix(1:2)
Ignoring empty pin current: Ix(1:3)
Ignoring empty pin current: Ix(1:4)
Ignoring empty pin current: Ix(2:1)
Ignoring empty pin current: Ix(2:2)
Ignoring empty pin current: Ix(2:3)
Ignoring empty pin current: Ix(2:4)
Ignoring empty pin current: Ix(u2:2)
Ignoring empty pin current: Ix(u4:2)

Date: Wed Jan 27 20:35:01 2021
Total elapsed time: 5.911 seconds.

tnom = 27
temp = 27
method = modified trap
totiter = 378570
traniter = 376897
tranpoints = 174660
accept = 132034
rejected = 42626
matrix size = 118
fillins = 253
solver = Normal
Thread vector: 6.6/4.3[2] 2.9/1.9[2] 1.9/1.1[2] 0.4/2.5[1]  2592/500
Matrix Compiler1: 23.07 KB object code size  3.1/1.3/[1.0]
Matrix Compiler2: 15.98 KB object code size  1.7/1.6/[0.8]

