Circuit: * C:\work\Systems and Signals\pracs\prac4\info\Draft2.asc

Direct Newton iteration for .op point succeeded.

Date: Wed May 27 18:15:33 2020
Total elapsed time: 0.046 seconds.

tnom = 27
temp = 27
method = modified trap
totiter = 2165
traniter = 2158
tranpoints = 1080
accept = 1052
rejected = 28
matrix size = 8
fillins = 0
solver = Normal
Matrix Compiler1: 192 bytes object code size  0.1/0.0/[0.0]
Matrix Compiler2: 472 bytes object code size  0.1/0.1/[0.1]

