Circuit: * C:\Users\waltd\Downloads\SS315\prac4\models\Draft1.asc

WARNING: Node NC_01 is floating.

WARNING: Less than two connections to node NC_01.  This node is used by A:U1:2.
WARNING: Less than two connections to node NC_07.  This node is used by D:U1:3.
Direct Newton iteration failed to find .op point.  (Use ".option noopiter" to skip.)
Starting Gmin stepping
Gmin = 10
vernier = 0.5
vernier = 0.25
vernier = 0.125
Gmin = 5.5165
vernier = 0.0625
vernier = 0.03125
vernier = 0.015625
vernier = 0.0078125
Gmin = 5.49501
vernier = 0.00390625
vernier = 0.00195313
vernier = 0.000976563
vernier = 0.000488281
Gmin = 5.50104
Gmin = 0
Gmin stepping failed

Starting source stepping with srcstepmethod=0
Source Step = 3.0303%
Source Step = 33.3333%
Source Step = 63.6364%
Source Step = 93.9394%
Source stepping succeeded in finding the operating point.

Heightened Def Con from 5.0293e-008 to 5.04336e-008

Date: Thu Jan 28 12:18:22 2021
Total elapsed time: 2.199 seconds.

tnom = 27
temp = 27
method = modified trap
totiter = 331045
traniter = 329336
tranpoints = 99617
accept = 72014
rejected = 27604
matrix size = 70
fillins = 54
solver = Normal
Matrix Compiler1: 5.37 KB object code size  0.9/0.4/[0.3]
Matrix Compiler2: 5.86 KB object code size  0.7/0.6/[0.3]

